Circuit: * C:\Users\Jim\Desktop\NMRABus Parallels XP\Simulations\Booster\Booster.asc

Direct Newton iteration for .op point succeeded.

Date: Sun Feb 19 11:12:47 2012
Total elapsed time: 4.245 seconds.

tnom = 27
temp = 27
method = modified trap
totiter = 194138
traniter = 194121
tranpoints = 54647
accept = 41826
rejected = 12821
matrix size = 54
fillins = 66
solver = Normal
Matrix Compiler1: 7.84 KB object code size  6.1/2.8/[1.1]
Matrix Compiler2: 5.77 KB object code size  2.2/2.0/[0.8]


