Circuit: * C:\Documents and Settings\Jim\Desktop\NMRABus\Simulations\Booster\Booster.asc

Direct Newton iteration for .op point succeeded.

Date: Sat Sep 08 21:50:50 2012
Total elapsed time: 0.890 seconds.

tnom = 27
temp = 27
method = modified trap
totiter = 130487
traniter = 130481
tranpoints = 38146
accept = 28602
rejected = 9544
matrix size = 28
fillins = 8
solver = Normal
Matrix Compiler1: 2.34 KB object code size  2.8/1.8/[1.7]
Matrix Compiler2: 2.47 KB object code size  1.9/1.7/[1.7]


