Circuit: * C:\Documents and Settings\Jim\Desktop\NMRABus\Simulations\Booster\Booster.asc

Direct Newton iteration for .op point succeeded.

Date: Sat Sep 08 08:45:06 2012
Total elapsed time: 0.781 seconds.

tnom = 27
temp = 27
method = modified trap
totiter = 130487
traniter = 130481
tranpoints = 38146
accept = 28602
rejected = 9544
matrix size = 28
fillins = 8
solver = Normal
Matrix Compiler1:     133 opcodes  2.5/[1.3]/1.9
Matrix Compiler2: 2.47 KB object code size  1.4/1.6/[1.3]


